$ -------------------------------------------------------------------- $
$ WAVEWATCH III NetCDF boundary input processing                       $
$--------------------------------------------------------------------- $
$
$ Boundary option: READ or WRITE
$
 WRITE 
$
$ Interpolation method: 1: nearest
$                       2: linear interpolation
 2 
$ Verbose (0, 1, 2)
1
$
$ List of spectra files. These NetCDF files use the WAVEWATCH III
$ format as described in the ww3_ounp.inp file. The files are 
$ defined relative to the directory in which the program is run.
ww3.T1.3.p.b001_2018_spec.nc
ww3.T1.3.p.b002_2018_spec.nc
ww3.T1.3.p.b003_2018_spec.nc
ww3.T1.3.p.b004_2018_spec.nc
ww3.T1.3.p.b005_2018_spec.nc
ww3.T1.3.p.b006_2018_spec.nc
ww3.T1.3.p.b007_2018_spec.nc
ww3.T1.3.p.b008_2018_spec.nc
ww3.T1.3.p.b009_2018_spec.nc
ww3.T1.3.p.b010_2018_spec.nc
ww3.T1.3.p.b011_2018_spec.nc
ww3.T1.3.p.b012_2018_spec.nc
ww3.T1.3.p.b013_2018_spec.nc
ww3.T1.3.p.b014_2018_spec.nc
ww3.T1.3.p.b015_2018_spec.nc
ww3.T1.3.p.b016_2018_spec.nc
ww3.T1.3.p.b017_2018_spec.nc
ww3.T1.3.p.b018_2018_spec.nc
ww3.T1.3.p.b019_2018_spec.nc
ww3.T1.3.p.b020_2018_spec.nc
ww3.T1.3.p.b021_2018_spec.nc
ww3.T1.3.p.b022_2018_spec.nc
ww3.T1.3.p.b023_2018_spec.nc
ww3.T1.3.p.b024_2018_spec.nc
ww3.T1.3.p.b025_2018_spec.nc
ww3.T1.3.p.b026_2018_spec.nc
ww3.T1.3.p.b027_2018_spec.nc
ww3.T1.3.p.b028_2018_spec.nc
ww3.T1.3.p.b029_2018_spec.nc
ww3.T1.3.p.b030_2018_spec.nc
ww3.T1.3.p.b031_2018_spec.nc
ww3.T1.3.p.b032_2018_spec.nc
ww3.T1.3.p.b033_2018_spec.nc
ww3.T1.3.p.b034_2018_spec.nc
ww3.T1.3.p.b035_2018_spec.nc
ww3.T1.3.p.b036_2018_spec.nc
ww3.T1.3.p.b037_2018_spec.nc
ww3.T1.3.p.b038_2018_spec.nc
ww3.T1.3.p.b039_2018_spec.nc
ww3.T1.3.p.b040_2018_spec.nc
ww3.T1.3.p.b041_2018_spec.nc
ww3.T1.3.p.b042_2018_spec.nc
ww3.T1.3.p.b043_2018_spec.nc
ww3.T1.3.p.b044_2018_spec.nc
ww3.T1.3.p.b045_2018_spec.nc
ww3.T1.3.p.b046_2018_spec.nc
ww3.T1.3.p.b047_2018_spec.nc
ww3.T1.3.p.b048_2018_spec.nc
ww3.T1.3.p.b049_2018_spec.nc
ww3.T1.3.p.b050_2018_spec.nc
ww3.T1.3.p.b051_2018_spec.nc
ww3.T1.3.p.b052_2018_spec.nc
ww3.T1.3.p.b053_2018_spec.nc
ww3.T1.3.p.b054_2018_spec.nc
ww3.T1.3.p.b055_2018_spec.nc
ww3.T1.3.p.b056_2018_spec.nc
ww3.T1.3.p.b057_2018_spec.nc
ww3.T1.3.p.b058_2018_spec.nc
ww3.T1.3.p.b059_2018_spec.nc
ww3.T1.3.p.b060_2018_spec.nc
ww3.T1.3.p.b061_2018_spec.nc
ww3.T1.3.p.b062_2018_spec.nc
ww3.T1.3.p.b063_2018_spec.nc
ww3.T1.3.p.b064_2018_spec.nc
ww3.T1.3.p.b065_2018_spec.nc
ww3.T1.3.p.b066_2018_spec.nc
ww3.T1.3.p.b067_2018_spec.nc
ww3.T1.3.p.b068_2018_spec.nc
ww3.T1.3.p.b069_2018_spec.nc
ww3.T1.3.p.b070_2018_spec.nc
ww3.T1.3.p.b071_2018_spec.nc
ww3.T1.3.p.b072_2018_spec.nc
ww3.T1.3.p.b073_2018_spec.nc
ww3.T1.3.p.b074_2018_spec.nc
ww3.T1.3.p.b075_2018_spec.nc
ww3.T1.3.p.b076_2018_spec.nc
ww3.T1.3.p.b077_2018_spec.nc
ww3.T1.3.p.b078_2018_spec.nc
ww3.T1.3.p.b079_2018_spec.nc
ww3.T1.3.p.b080_2018_spec.nc
ww3.T1.3.p.b081_2018_spec.nc
ww3.T1.3.p.b082_2018_spec.nc
ww3.T1.3.p.b083_2018_spec.nc
ww3.T1.3.p.b084_2018_spec.nc
ww3.T1.3.p.b085_2018_spec.nc
ww3.T1.3.p.b086_2018_spec.nc
ww3.T1.3.p.b087_2018_spec.nc
ww3.T1.3.p.b088_2018_spec.nc
ww3.T1.3.p.b089_2018_spec.nc
ww3.T1.3.p.b090_2018_spec.nc
ww3.T1.3.p.b091_2018_spec.nc
ww3.T1.3.p.b092_2018_spec.nc
ww3.T1.3.p.b093_2018_spec.nc
ww3.T1.3.p.b094_2018_spec.nc
ww3.T1.3.p.b095_2018_spec.nc
ww3.T1.3.p.b096_2018_spec.nc
ww3.T1.3.p.b097_2018_spec.nc
ww3.T1.3.p.b098_2018_spec.nc
ww3.T1.3.p.b099_2018_spec.nc
ww3.T1.3.p.b100_2018_spec.nc
ww3.T1.3.p.b101_2018_spec.nc
ww3.T1.3.p.b102_2018_spec.nc
ww3.T1.3.p.b103_2018_spec.nc
ww3.T1.3.p.b104_2018_spec.nc
ww3.T1.3.p.b105_2018_spec.nc
ww3.T1.3.p.b106_2018_spec.nc
ww3.T1.3.p.b107_2018_spec.nc
ww3.T1.3.p.b108_2018_spec.nc
ww3.T1.3.p.b109_2018_spec.nc
ww3.T1.3.p.b110_2018_spec.nc
ww3.T1.3.p.b111_2018_spec.nc
ww3.T1.3.p.b112_2018_spec.nc
ww3.T1.3.p.b113_2018_spec.nc
ww3.T1.3.p.b114_2018_spec.nc
ww3.T1.3.p.b115_2018_spec.nc
ww3.T1.3.p.b116_2018_spec.nc
ww3.T1.3.p.b117_2018_spec.nc
ww3.T1.3.p.b118_2018_spec.nc
ww3.T1.3.p.b119_2018_spec.nc
ww3.T1.3.p.b120_2018_spec.nc
ww3.T1.3.p.b121_2018_spec.nc
ww3.T1.3.p.b122_2018_spec.nc
ww3.T1.3.p.b123_2018_spec.nc
ww3.T1.3.p.b124_2018_spec.nc
ww3.T1.3.p.b125_2018_spec.nc
ww3.T1.3.p.b126_2018_spec.nc
ww3.T1.3.p.b127_2018_spec.nc
ww3.T1.3.p.b128_2018_spec.nc
ww3.T1.3.p.b129_2018_spec.nc
ww3.T1.3.p.b130_2018_spec.nc
ww3.T1.3.p.b131_2018_spec.nc
ww3.T1.3.p.b132_2018_spec.nc
ww3.T1.3.p.b133_2018_spec.nc
ww3.T1.3.p.b134_2018_spec.nc
ww3.T1.3.p.b135_2018_spec.nc
ww3.T1.3.p.b136_2018_spec.nc
ww3.T1.3.p.b137_2018_spec.nc
ww3.T1.3.p.b138_2018_spec.nc
ww3.T1.3.p.b139_2018_spec.nc
ww3.T1.3.p.b140_2018_spec.nc
ww3.T1.3.p.b141_2018_spec.nc
ww3.T1.3.p.b142_2018_spec.nc
ww3.T1.3.p.b143_2018_spec.nc
ww3.T1.3.p.b144_2018_spec.nc
ww3.T1.3.p.b145_2018_spec.nc
ww3.T1.3.p.b146_2018_spec.nc
ww3.T1.3.p.b147_2018_spec.nc
ww3.T1.3.p.b148_2018_spec.nc
ww3.T1.3.p.b149_2018_spec.nc
ww3.T1.3.p.b150_2018_spec.nc
ww3.T1.3.p.b151_2018_spec.nc
ww3.T1.3.p.b152_2018_spec.nc
ww3.T1.3.p.b153_2018_spec.nc
ww3.T1.3.p.b154_2018_spec.nc
ww3.T1.3.p.b155_2018_spec.nc
ww3.T1.3.p.b156_2018_spec.nc
ww3.T1.3.p.b157_2018_spec.nc
ww3.T1.3.p.b158_2018_spec.nc
ww3.T1.3.p.b159_2018_spec.nc
ww3.T1.3.p.b160_2018_spec.nc
ww3.T1.3.p.b161_2018_spec.nc
ww3.T1.3.p.b162_2018_spec.nc
ww3.T1.3.p.b163_2018_spec.nc
ww3.T1.3.p.b164_2018_spec.nc
ww3.T1.3.p.b165_2018_spec.nc
ww3.T1.3.p.b166_2018_spec.nc
ww3.T1.3.p.b167_2018_spec.nc
ww3.T1.3.p.b168_2018_spec.nc
ww3.T1.3.p.b169_2018_spec.nc
ww3.T1.3.p.b170_2018_spec.nc
ww3.T1.3.p.b171_2018_spec.nc
ww3.T1.3.p.b172_2018_spec.nc
ww3.T1.3.p.b173_2018_spec.nc
ww3.T1.3.p.b174_2018_spec.nc
ww3.T1.3.p.b175_2018_spec.nc
ww3.T1.3.p.b176_2018_spec.nc
ww3.T1.3.p.b177_2018_spec.nc
ww3.T1.3.p.b178_2018_spec.nc
ww3.T1.3.p.b179_2018_spec.nc
ww3.T1.3.p.b180_2018_spec.nc
ww3.T1.3.p.b181_2018_spec.nc
ww3.T1.3.p.b182_2018_spec.nc
ww3.T1.3.p.b183_2018_spec.nc
ww3.T1.3.p.b184_2018_spec.nc
ww3.T1.3.p.b185_2018_spec.nc
ww3.T1.3.p.b186_2018_spec.nc
'STOPSTRING'
$
$ -------------------------------------------------------------------- $
$ End of input file                                                    $
$ -------------------------------------------------------------------- $

